
**** 11/05/15 19:50:13 ****** PSpice Lite (October 2012) ****** ID# 10813 ****

 ** Profile: "SCHEMATIC1-sIMpROF"  [ D:\DOCUMENTS\DROPBOX\DOCUMENTS\DAYANAND SAGAR COLLEGE OF ENGINEERING\3RD SEMESTER\EC & LD Lab\Do


 ****     CIRCUIT DESCRIPTION


******************************************************************************




** Creating circuit file "sIMpROF.cir" 
** WARNING: THIS AUTOMATICALLY GENERATED FILE MAY BE OVERWRITTEN BY SUBSEQUENT SIMULATIONS

*Libraries: 
* Profile Libraries :
* Local Libraries :
* From [PSPICE NETLIST] section of C:\Users\Amruth Pillai\AppData\Roaming\SPB_Data\cdssetup\OrCAD_PSpice/16.6.0/PSpice.ini file:
.lib "nomd.lib" 

*Analysis directives: 
.TRAN  0 5ms 0 0.01ms 
.OPTIONS ADVCONV
.PROBE64 V(alias(*)) I(alias(*)) W(alias(*)) D(alias(*)) NOISE(alias(*)) 
.INC "..\SCHEMATIC1.net" 



**** INCLUDING SCHEMATIC1.net ****
* source DOUBLE ENDED CLIPPER
V_V1         N00225 0  
+SIN <VOFF> 5 1k 0 0 0
------$
ERROR(ORPSIM-16492): Missing value
D_D1         N00232 N00239 D1N4002 
D_D2         N00269 N00232 D1N4002 
R_R1         N00225 N00232  1K TC=0,0 
V_V2         N00239 0 2
V_V3         0 N00269 2

**** RESUMING sIMpROF.cir ****
.END
