
**** 11/05/15 19:37:32 ****** PSpice Lite (October 2012) ****** ID# 10813 ****

 ** Profile: "SCHEMATIC1-SimProf"  [ D:\DOCUMENTS\DROPBOX\DOCUMENTS\DAYANAND SAGAR COLLEGE OF ENGINEERING\3RD SEMESTER\EC & LD Lab\Sh


 ****     CIRCUIT DESCRIPTION


******************************************************************************




** Creating circuit file "SimProf.cir" 
** WARNING: THIS AUTOMATICALLY GENERATED FILE MAY BE OVERWRITTEN BY SUBSEQUENT SIMULATIONS

*Libraries: 
* Profile Libraries :
* Local Libraries :
* From [PSPICE NETLIST] section of C:\Users\Amruth Pillai\AppData\Roaming\SPB_Data\cdssetup\OrCAD_PSpice/16.6.0/PSpice.ini file:
.lib "nomd.lib" 

*Analysis directives: 
.TRAN  0 5ms 0 0.01ms 
.OPTIONS ADVCONV
.PROBE64 V(alias(*)) I(alias(*)) W(alias(*)) D(alias(*)) NOISE(alias(*)) 
.INC "..\SCHEMATIC1.net" 



**** INCLUDING SCHEMATIC1.net ****
* source SHUNT CLIPPER
V_V1         N00151 0  
+SIN 0 5 1K 0 0 0
D_D1         N00158 N00165 D1N4002 
R_R1         N00151 N00158  0K TC=0,0 
----------------------------$
ERROR(ORPSIM-16144): Value may not be 0
V_V2         N00165 0 0

**** RESUMING SimProf.cir ****
.END
