
**** 11/16/15 20:01:13 ****** PSpice Lite (October 2012) ****** ID# 10813 ****

 ** Profile: "SCHEMATIC1-SimProf"  [ D:\Documents\Design & Development\GitHub Repositories\CS-VTU-Lab-Manual\3rd-Sem\ElectronicCircui


 ****     CIRCUIT DESCRIPTION


******************************************************************************




** Creating circuit file "SimProf.cir" 
** WARNING: THIS AUTOMATICALLY GENERATED FILE MAY BE OVERWRITTEN BY SUBSEQUENT SIMULATIONS

*Libraries: 
* Profile Libraries :
* Local Libraries :
* From [PSPICE NETLIST] section of C:\Users\amrut\AppData\Roaming\SPB_16.6\cdssetup\OrCAD_PSpice/16.6.0/PSpice.ini file:
.lib "nomd.lib" 

*Analysis directives: 
.TRAN  0 5ms 0 0.01ms 
.OPTIONS ADVCONV
.PROBE64 V(alias(*)) I(alias(*)) W(alias(*)) D(alias(*)) NOISE(alias(*)) 
.INC "..\SCHEMATIC1.net" 



**** INCLUDING SCHEMATIC1.net ****
* source POSITIVE CLAMPER
V_V1         N14440 0  
+PULSE 2 -2 0.01ms 0.01us 0.01us 0.5ms 1ms
C_C1         N14440 N14447  0.1uF  TC=0,0 
D_D1         0 N14447 D1N4002 
R_R1         0 N14447  200K TC=0,0 

**** RESUMING SimProf.cir ****
.END

**** 11/16/15 20:01:13 ****** PSpice Lite (October 2012) ****** ID# 10813 ****

 ** Profile: "SCHEMATIC1-SimProf"  [ D:\Documents\Design & Development\GitHub Repositories\CS-VTU-Lab-Manual\3rd-Sem\ElectronicCircui


 ****     Diode MODEL PARAMETERS


******************************************************************************




               D1N4002         
          IS   14.110000E-09 
           N    1.984        
         ISR  100.000000E-12 
         IKF   94.81         
          BV  100.1          
         IBV   10            
          RS     .03389      
          TT    4.761000E-06 
         CJO   51.170000E-12 
          VJ     .3905       
           M     .2762       


**** 11/16/15 20:01:13 ****** PSpice Lite (October 2012) ****** ID# 10813 ****

 ** Profile: "SCHEMATIC1-SimProf"  [ D:\Documents\Design & Development\GitHub Repositories\CS-VTU-Lab-Manual\3rd-Sem\ElectronicCircui


 ****     INITIAL TRANSIENT SOLUTION       TEMPERATURE =   27.000 DEG C


******************************************************************************



 NODE   VOLTAGE     NODE   VOLTAGE     NODE   VOLTAGE     NODE   VOLTAGE


(N14440)    2.0000 (N14447)-160.3E-15 




    VOLTAGE SOURCE CURRENTS
    NAME         CURRENT

    V_V1         0.000E+00

    TOTAL POWER DISSIPATION   0.00E+00  WATTS



          JOB CONCLUDED

**** 11/16/15 20:01:13 ****** PSpice Lite (October 2012) ****** ID# 10813 ****

 ** Profile: "SCHEMATIC1-SimProf"  [ D:\Documents\Design & Development\GitHub Repositories\CS-VTU-Lab-Manual\3rd-Sem\ElectronicCircui


 ****     JOB STATISTICS SUMMARY


******************************************************************************



  Total job time (using Solver 1)   =         .03
